 INFO
nunit      1    1    1
unit   cell
celltype   primcell
shape   parapipedal
 END_INFO
 DIM-GROUP
           3           1
 PRIMVEC
   11.0000000000    0.0000000000    0.0000000000
    0.0000000000   11.0000000000    0.0000000000
    0.0000000000    0.0000000000    7.0000000000
 CONVVEC
   11.0000000000    0.0000000000    0.0000000000
    0.0000000000   11.0000000000    0.0000000000
    0.0000000000    0.0000000000    7.0000000000
 PRIMCOORD
          12           1
  1      5.5000000000     7.9856395300     3.5000000000
  6      5.5000000000     6.8952092200     3.5000000000
  6      6.7089386000     6.1981252400     3.5000000000
  1      7.6529918000     6.7430945400     3.5000000000
  6      6.7089386000     4.8018747000     3.5000000000
  1      7.6529918000     4.2569056100     3.5000000000
  6      5.5000000000     4.1047906200     3.5000000000
  1      5.5000000000     3.0143604300     3.5000000000
  6      4.2910612000     4.8018746800     3.5000000000
  1      3.3470081000     4.2569055600     3.5000000000
  6      4.2910613000     6.1981252800     3.5000000000
  1      3.3470082000     6.7430945800     3.5000000000
 CONVCOORD
          12           1
  1      5.5000000000     7.9856395300     3.5000000000
  6      5.5000000000     6.8952092200     3.5000000000
  6      6.7089386000     6.1981252400     3.5000000000
  1      7.6529918000     6.7430945400     3.5000000000
  6      6.7089386000     4.8018747000     3.5000000000
  1      7.6529918000     4.2569056100     3.5000000000
  6      5.5000000000     4.1047906200     3.5000000000
  1      5.5000000000     3.0143604300     3.5000000000
  6      4.2910612000     4.8018746800     3.5000000000
  1      3.3470081000     4.2569055600     3.5000000000
  6      4.2910613000     6.1981252800     3.5000000000
  1      3.3470082000     6.7430945800     3.5000000000
 RECIP-PRIMVEC
    0.0909090909    0.0000000000    0.0000000000

    0.0000000000    0.0909090909    0.0000000000

    0.0000000000    0.0000000000    0.1428571429

 RECIP-CONVVEC
    0.0909090909    0.0000000000    0.0000000000

    0.0000000000    0.0909090909    0.0000000000

    0.0000000000    0.0000000000    0.1428571429

 WIGNER-SEITZ-PRIMCELL
           4
 -0.5500000E+01 -0.5500000E+01  0.3500000E+01  -0.1000000E+01  0.0000000E+00  0.0000000E+00
 -0.5500000E+01  0.5500000E+01  0.3500000E+01  -0.1000000E+01  0.0000000E+00  0.0000000E+00
 -0.5500000E+01  0.5500000E+01 -0.3500000E+01  -0.1000000E+01  0.0000000E+00  0.0000000E+00
 -0.5500000E+01 -0.5500000E+01 -0.3500000E+01  -0.1000000E+01  0.0000000E+00  0.0000000E+00
           4
 -0.5500000E+01 -0.5500000E+01 -0.3500000E+01  -0.0000000E+00 -0.1000000E+01 -0.0000000E+00
  0.5500000E+01 -0.5500000E+01 -0.3500000E+01  -0.0000000E+00 -0.1000000E+01 -0.0000000E+00
  0.5500000E+01 -0.5500000E+01  0.3500000E+01  -0.0000000E+00 -0.1000000E+01 -0.0000000E+00
 -0.5500000E+01 -0.5500000E+01  0.3500000E+01  -0.0000000E+00 -0.1000000E+01 -0.0000000E+00
           4
 -0.5500000E+01  0.5500000E+01 -0.3500000E+01   0.0000000E+00  0.0000000E+00 -0.1000000E+01
  0.5500000E+01  0.5500000E+01 -0.3500000E+01   0.0000000E+00  0.0000000E+00 -0.1000000E+01
  0.5500000E+01 -0.5500000E+01 -0.3500000E+01   0.0000000E+00  0.0000000E+00 -0.1000000E+01
 -0.5500000E+01 -0.5500000E+01 -0.3500000E+01   0.0000000E+00  0.0000000E+00 -0.1000000E+01
           4
 -0.5500000E+01 -0.5500000E+01  0.3500000E+01  -0.0000000E+00 -0.0000000E+00  0.1000000E+01
  0.5500000E+01 -0.5500000E+01  0.3500000E+01  -0.0000000E+00 -0.0000000E+00  0.1000000E+01
  0.5500000E+01  0.5500000E+01  0.3500000E+01  -0.0000000E+00 -0.0000000E+00  0.1000000E+01
 -0.5500000E+01  0.5500000E+01  0.3500000E+01  -0.0000000E+00 -0.0000000E+00  0.1000000E+01
           4
 -0.5500000E+01  0.5500000E+01  0.3500000E+01   0.0000000E+00  0.1000000E+01  0.0000000E+00
  0.5500000E+01  0.5500000E+01  0.3500000E+01   0.0000000E+00  0.1000000E+01  0.0000000E+00
  0.5500000E+01  0.5500000E+01 -0.3500000E+01   0.0000000E+00  0.1000000E+01  0.0000000E+00
 -0.5500000E+01  0.5500000E+01 -0.3500000E+01   0.0000000E+00  0.1000000E+01  0.0000000E+00
           4
  0.5500000E+01 -0.5500000E+01 -0.3500000E+01   0.1000000E+01 -0.0000000E+00 -0.0000000E+00
  0.5500000E+01  0.5500000E+01 -0.3500000E+01   0.1000000E+01 -0.0000000E+00 -0.0000000E+00
  0.5500000E+01  0.5500000E+01  0.3500000E+01   0.1000000E+01 -0.0000000E+00 -0.0000000E+00
  0.5500000E+01 -0.5500000E+01  0.3500000E+01   0.1000000E+01 -0.0000000E+00 -0.0000000E+00
 WIGNER-SEITZ-PRIMCELL_END
 WIGNER-SEITZ-CONVCELL
           4
 -0.5500000E+01 -0.5500000E+01  0.3500000E+01  -0.1000000E+01  0.0000000E+00  0.0000000E+00
 -0.5500000E+01  0.5500000E+01  0.3500000E+01  -0.1000000E+01  0.0000000E+00  0.0000000E+00
 -0.5500000E+01  0.5500000E+01 -0.3500000E+01  -0.1000000E+01  0.0000000E+00  0.0000000E+00
 -0.5500000E+01 -0.5500000E+01 -0.3500000E+01  -0.1000000E+01  0.0000000E+00  0.0000000E+00
           4
 -0.5500000E+01 -0.5500000E+01 -0.3500000E+01  -0.0000000E+00 -0.1000000E+01 -0.0000000E+00
  0.5500000E+01 -0.5500000E+01 -0.3500000E+01  -0.0000000E+00 -0.1000000E+01 -0.0000000E+00
  0.5500000E+01 -0.5500000E+01  0.3500000E+01  -0.0000000E+00 -0.1000000E+01 -0.0000000E+00
 -0.5500000E+01 -0.5500000E+01  0.3500000E+01  -0.0000000E+00 -0.1000000E+01 -0.0000000E+00
           4
 -0.5500000E+01  0.5500000E+01 -0.3500000E+01   0.0000000E+00  0.0000000E+00 -0.1000000E+01
  0.5500000E+01  0.5500000E+01 -0.3500000E+01   0.0000000E+00  0.0000000E+00 -0.1000000E+01
  0.5500000E+01 -0.5500000E+01 -0.3500000E+01   0.0000000E+00  0.0000000E+00 -0.1000000E+01
 -0.5500000E+01 -0.5500000E+01 -0.3500000E+01   0.0000000E+00  0.0000000E+00 -0.1000000E+01
           4
 -0.5500000E+01 -0.5500000E+01  0.3500000E+01  -0.0000000E+00 -0.0000000E+00  0.1000000E+01
  0.5500000E+01 -0.5500000E+01  0.3500000E+01  -0.0000000E+00 -0.0000000E+00  0.1000000E+01
  0.5500000E+01  0.5500000E+01  0.3500000E+01  -0.0000000E+00 -0.0000000E+00  0.1000000E+01
 -0.5500000E+01  0.5500000E+01  0.3500000E+01  -0.0000000E+00 -0.0000000E+00  0.1000000E+01
           4
 -0.5500000E+01  0.5500000E+01  0.3500000E+01   0.0000000E+00  0.1000000E+01  0.0000000E+00
  0.5500000E+01  0.5500000E+01  0.3500000E+01   0.0000000E+00  0.1000000E+01  0.0000000E+00
  0.5500000E+01  0.5500000E+01 -0.3500000E+01   0.0000000E+00  0.1000000E+01  0.0000000E+00
 -0.5500000E+01  0.5500000E+01 -0.3500000E+01   0.0000000E+00  0.1000000E+01  0.0000000E+00
           4
  0.5500000E+01 -0.5500000E+01 -0.3500000E+01   0.1000000E+01 -0.0000000E+00 -0.0000000E+00
  0.5500000E+01  0.5500000E+01 -0.3500000E+01   0.1000000E+01 -0.0000000E+00 -0.0000000E+00
  0.5500000E+01  0.5500000E+01  0.3500000E+01   0.1000000E+01 -0.0000000E+00 -0.0000000E+00
  0.5500000E+01 -0.5500000E+01  0.3500000E+01   0.1000000E+01 -0.0000000E+00 -0.0000000E+00
 WIGNER-SEITZ-CONVCELL_END
 BRILLOUIN-ZONE-PRIMCELL
           4
 -0.4545455E-01  0.4545455E-01  0.7142857E-01  -0.1000000E+01  0.0000000E+00  0.0000000E+00
 -0.4545455E-01  0.4545455E-01 -0.7142857E-01  -0.1000000E+01  0.0000000E+00  0.0000000E+00
 -0.4545455E-01 -0.4545455E-01 -0.7142857E-01  -0.1000000E+01  0.0000000E+00  0.0000000E+00
 -0.4545455E-01 -0.4545455E-01  0.7142857E-01  -0.1000000E+01  0.0000000E+00  0.0000000E+00
           4
 -0.4545455E-01 -0.4545455E-01  0.7142857E-01  -0.0000000E+00 -0.1000000E+01  0.5795553E-16
 -0.4545455E-01 -0.4545455E-01 -0.7142857E-01  -0.0000000E+00 -0.1000000E+01  0.5795553E-16
  0.4545455E-01 -0.4545455E-01 -0.7142857E-01  -0.0000000E+00 -0.1000000E+01  0.5795553E-16
  0.4545455E-01 -0.4545455E-01  0.7142857E-01  -0.0000000E+00 -0.1000000E+01  0.5795553E-16
           4
 -0.4545455E-01  0.4545455E-01 -0.7142857E-01   0.1362997E-15 -0.3134893E-16 -0.1000000E+01
  0.4545455E-01  0.4545455E-01 -0.7142857E-01   0.1362997E-15 -0.3134893E-16 -0.1000000E+01
  0.4545455E-01 -0.4545455E-01 -0.7142857E-01   0.1362997E-15 -0.3134893E-16 -0.1000000E+01
 -0.4545455E-01 -0.4545455E-01 -0.7142857E-01   0.1362997E-15 -0.3134893E-16 -0.1000000E+01
           4
 -0.4545455E-01 -0.4545455E-01  0.7142857E-01   0.7632783E-16  0.2862294E-16  0.1000000E+01
  0.4545455E-01 -0.4545455E-01  0.7142857E-01   0.7632783E-16  0.2862294E-16  0.1000000E+01
  0.4545455E-01  0.4545455E-01  0.7142857E-01   0.7632783E-16  0.2862294E-16  0.1000000E+01
 -0.4545455E-01  0.4545455E-01  0.7142857E-01   0.7632783E-16  0.2862294E-16  0.1000000E+01
           4
 -0.4545455E-01  0.4545455E-01  0.7142857E-01   0.0000000E+00  0.1000000E+01 -0.5133204E-16
  0.4545455E-01  0.4545455E-01  0.7142857E-01   0.0000000E+00  0.1000000E+01 -0.5133204E-16
  0.4545455E-01  0.4545455E-01 -0.7142857E-01   0.0000000E+00  0.1000000E+01 -0.5133204E-16
 -0.4545455E-01  0.4545455E-01 -0.7142857E-01   0.0000000E+00  0.1000000E+01 -0.5133204E-16
           4
  0.4545455E-01 -0.4545455E-01 -0.7142857E-01   0.1000000E+01 -0.0000000E+00 -0.0000000E+00
  0.4545455E-01  0.4545455E-01 -0.7142857E-01   0.1000000E+01 -0.0000000E+00 -0.0000000E+00
  0.4545455E-01  0.4545455E-01  0.7142857E-01   0.1000000E+01 -0.0000000E+00 -0.0000000E+00
  0.4545455E-01 -0.4545455E-01  0.7142857E-01   0.1000000E+01 -0.0000000E+00 -0.0000000E+00
 BRILLOUIN-ZONE-PRIMCELL_END
 BRILLOUIN-ZONE-CONVCELL
           4
 -0.4545455E-01  0.4545455E-01  0.7142857E-01  -0.1000000E+01  0.0000000E+00  0.0000000E+00
 -0.4545455E-01  0.4545455E-01 -0.7142857E-01  -0.1000000E+01  0.0000000E+00  0.0000000E+00
 -0.4545455E-01 -0.4545455E-01 -0.7142857E-01  -0.1000000E+01  0.0000000E+00  0.0000000E+00
 -0.4545455E-01 -0.4545455E-01  0.7142857E-01  -0.1000000E+01  0.0000000E+00  0.0000000E+00
           4
 -0.4545455E-01 -0.4545455E-01  0.7142857E-01  -0.0000000E+00 -0.1000000E+01  0.5795553E-16
 -0.4545455E-01 -0.4545455E-01 -0.7142857E-01  -0.0000000E+00 -0.1000000E+01  0.5795553E-16
  0.4545455E-01 -0.4545455E-01 -0.7142857E-01  -0.0000000E+00 -0.1000000E+01  0.5795553E-16
  0.4545455E-01 -0.4545455E-01  0.7142857E-01  -0.0000000E+00 -0.1000000E+01  0.5795553E-16
           4
 -0.4545455E-01  0.4545455E-01 -0.7142857E-01   0.1362997E-15 -0.3134893E-16 -0.1000000E+01
  0.4545455E-01  0.4545455E-01 -0.7142857E-01   0.1362997E-15 -0.3134893E-16 -0.1000000E+01
  0.4545455E-01 -0.4545455E-01 -0.7142857E-01   0.1362997E-15 -0.3134893E-16 -0.1000000E+01
 -0.4545455E-01 -0.4545455E-01 -0.7142857E-01   0.1362997E-15 -0.3134893E-16 -0.1000000E+01
           4
 -0.4545455E-01 -0.4545455E-01  0.7142857E-01   0.7632783E-16  0.2862294E-16  0.1000000E+01
  0.4545455E-01 -0.4545455E-01  0.7142857E-01   0.7632783E-16  0.2862294E-16  0.1000000E+01
  0.4545455E-01  0.4545455E-01  0.7142857E-01   0.7632783E-16  0.2862294E-16  0.1000000E+01
 -0.4545455E-01  0.4545455E-01  0.7142857E-01   0.7632783E-16  0.2862294E-16  0.1000000E+01
           4
 -0.4545455E-01  0.4545455E-01  0.7142857E-01   0.0000000E+00  0.1000000E+01 -0.5133204E-16
  0.4545455E-01  0.4545455E-01  0.7142857E-01   0.0000000E+00  0.1000000E+01 -0.5133204E-16
  0.4545455E-01  0.4545455E-01 -0.7142857E-01   0.0000000E+00  0.1000000E+01 -0.5133204E-16
 -0.4545455E-01  0.4545455E-01 -0.7142857E-01   0.0000000E+00  0.1000000E+01 -0.5133204E-16
           4
  0.4545455E-01 -0.4545455E-01 -0.7142857E-01   0.1000000E+01 -0.0000000E+00 -0.0000000E+00
  0.4545455E-01  0.4545455E-01 -0.7142857E-01   0.1000000E+01 -0.0000000E+00 -0.0000000E+00
  0.4545455E-01  0.4545455E-01  0.7142857E-01   0.1000000E+01 -0.0000000E+00 -0.0000000E+00
  0.4545455E-01 -0.4545455E-01  0.7142857E-01   0.1000000E+01 -0.0000000E+00 -0.0000000E+00
 BRILLOUIN-ZONE-CONVCELL_END
 ATOMS
    1    5.5000000000    7.9856395300    3.5000000000
    6    5.5000000000    6.8952092200    3.5000000000
    6    6.7089386000    6.1981252400    3.5000000000
    1    7.6529918000    6.7430945400    3.5000000000
    6    6.7089386000    4.8018747000    3.5000000000
    1    7.6529918000    4.2569056100    3.5000000000
    6    5.5000000000    4.1047906200    3.5000000000
    1    5.5000000000    3.0143604300    3.5000000000
    6    4.2910612000    4.8018746800    3.5000000000
    1    3.3470081000    4.2569055600    3.5000000000
    6    4.2910613000    6.1981252800    3.5000000000
    1    3.3470082000    6.7430945800    3.5000000000
 FRAMES
1      0.0000000000    0.0000000000    0.0000000000     11.0000000000    0.0000000000    0.0000000000
1      0.0000000000    0.0000000000    0.0000000000      0.0000000000   11.0000000000    0.0000000000
1      0.0000000000    0.0000000000    0.0000000000      0.0000000000    0.0000000000    7.0000000000
1      0.0000000000    0.0000000000    7.0000000000     11.0000000000    0.0000000000    7.0000000000
1      0.0000000000    0.0000000000    7.0000000000      0.0000000000   11.0000000000    7.0000000000
1      0.0000000000   11.0000000000    0.0000000000     11.0000000000   11.0000000000    0.0000000000
1      0.0000000000   11.0000000000    0.0000000000      0.0000000000   11.0000000000    7.0000000000
1      0.0000000000   11.0000000000    7.0000000000     11.0000000000   11.0000000000    7.0000000000
1     11.0000000000    0.0000000000    0.0000000000     11.0000000000   11.0000000000    0.0000000000
1     11.0000000000    0.0000000000    0.0000000000     11.0000000000    0.0000000000    7.0000000000
1     11.0000000000    0.0000000000    7.0000000000     11.0000000000   11.0000000000    7.0000000000
1     11.0000000000   11.0000000000    0.0000000000     11.0000000000   11.0000000000    7.0000000000
